31

Co	15.400	36.373	0.0
Co	18.200	36.373	0.0
Co	11.200	38.798	0.0
Co	14.000	38.798	0.0
Co	16.800	38.798	0.0
Co	19.600	38.798	0.0
Co	22.400	38.798	0.0
Co	9.800	41.223	0.0
Co	12.600	41.223	0.0
Co	15.400	41.223	0.0
Co	18.200	41.223	0.0
Co	21.000	41.223	0.0
Co	23.800	41.223	0.0
Co	11.200	43.648	0.0
Co	14.000	43.648	0.0
Co	16.800	43.648	0.0
Co	19.600	43.648	0.0
Co	22.400	43.648	0.0
Co	9.800	46.073	0.0
Co	12.600	46.073	0.0
Co	15.400	46.073	0.0
Co	18.200	46.073	0.0
Co	21.000	46.073	0.0
Co	23.800	46.073	0.0
Co	11.200	48.497	0.0
Co	14.000	48.497	0.0
Co	16.800	48.497	0.0
Co	19.600	48.497	0.0
Co	22.400	48.497	0.0
Co	15.400	50.922	0.0
Co	18.200	50.922	0.0
